Circuit: * C:\Users\jorge\TC2_scripts\tc2\TS6\TS6_2.asc

Ignoring empty pin current: Ix(u2:1)
Ignoring empty pin current: Ix(u2:2)

Date: Sun Jun 18 22:04:16 2023
Total elapsed time: 0.071 seconds.

tnom = 27
temp = 27
method = trap
totiter = 0
traniter = 0
tranpoints = 0
accept = 0
rejected = 0
matrix size = 5
fillins = 1
solver = Normal

