Circuit: * C:\Users\jorge\TC2_scripts\tc2\TS12\draft2.asc


Date: Sun Nov 12 12:18:11 2023
Total elapsed time: 0.032 seconds.

tnom = 27
temp = 27
method = trap
totiter = 0
traniter = 0
tranpoints = 0
accept = 0
rejected = 0
matrix size = 4
fillins = 1
solver = Normal

