Circuit: * C:\Users\jorge\TC2_scripts\tc2\TS12\Draft1.asc

WARNING: Node N004 is floating.


Date: Sun Nov 12 11:19:14 2023
Total elapsed time: 0.053 seconds.

tnom = 27
temp = 27
method = trap
totiter = 0
traniter = 0
tranpoints = 0
accept = 0
rejected = 0
matrix size = 5
fillins = 1
solver = Normal

