Circuit: * C:\Users\jorge\TC2_scripts\tc2\Parcial\Lattice.asc


Date: Mon Jul 10 21:17:44 2023
Total elapsed time: 0.042 seconds.

tnom = 27
temp = 27
method = trap
totiter = 0
traniter = 0
tranpoints = 0
accept = 0
rejected = 0
matrix size = 6
fillins = 1
solver = Normal

