Circuit: * C:\Users\jorge\TC2_scripts\tc2\TS7\ej_1_ts7.asc

.OP point found by inspection.

Date: Sat Sep 02 14:36:25 2023
Total elapsed time: 0.117 seconds.

tnom = 27
temp = 27
method = trap
totiter = 0
traniter = 0
tranpoints = 0
accept = 0
rejected = 0
matrix size = 3
fillins = 1
solver = Normal

