Circuit: * C:\Users\jorge\TC2_scripts\tc2\TS7\ej_2_ts7.asc


Date: Sat Sep 02 14:44:14 2023
Total elapsed time: 0.093 seconds.

tnom = 27
temp = 27
method = trap
totiter = 0
traniter = 0
tranpoints = 0
accept = 0
rejected = 0
matrix size = 3
fillins = 0
solver = Normal

